The following modules were not unloaded:
  (Use "module --force purge" to unload all):

  1) gold/2.1.5.0   2) StdEnv
 Coupled Input File name = 
 /global/work/sfr009/Coupled_Pert//tmproms/run/arctic-20km/roms.in











 Model Coupling Parallel Threads:

   Ocean Model MPI nodes:   000 - 023
   CICE Model  MPI nodes:   024 - 031


   Ocean Export: SST:SSS:FRZMLT:u:v:SSH
   CICE Export: AICE:freshAI:fsaltAI:fhocnAI:fswthruAI:strocnx:strocny






















































  I am Ocean node:           10
  I am Ocean node:           13
  I am Ocean node:           11
  I am Ocean node:           18
  I am Ocean node:           14
  I am Ocean node:           15
  I am Ocean node:           16
  I am Ocean node:           17
  I am Ocean node:           12
  I am Ocean node:            0
  I am Ocean node:            1
  I am Ocean node:            2
  I am Ocean node:            3
  I am Ocean node:            4
  I am Ocean node:            5
  I am Ocean node:            6
  I am Ocean node:            7
  I am Ocean node:            8
  I am Ocean node:            9
  I am CICE node: calling CICE_INITIALIZE:           29
  I am CICE node: calling CICE_INITIALIZE:           30
  I am Ocean node:           19
  I am Ocean node:           23
  I am CICE node: calling CICE_INITIALIZE:           31
  I am Ocean node:           20
  I am Ocean node:           21
  I am Ocean node:           22
  I am CICE node: calling CICE_INITIALIZE:           24
  I am CICE node: calling CICE_INITIALIZE:           25
  I am CICE node: calling CICE_INITIALIZE:           26
  I am CICE node: calling CICE_INITIALIZE:           27
  I am CICE node: calling CICE_INITIALIZE:           28

 Model Input Parameters:  ROMS/TOMS version 3.7  
                          Monday - August 7, 2017 - 12:49:53 PM
 -----------------------------------------------------------------------------
 Reading zbgc_nml

 ROMS 3.6 - Arctic-20km - Coupled ROMS-CICE

 Operating system : Linux
 CPU/hardware     : x86_64
 Compiler system  : ifort
 Compiler command : /global/apps/OpenMPI/1.8.1/intel/13.4/bin/mpif90
 Compiler flags   : -mcmodel=large -xHOST  -ip -O3 -g -I/global/work/sfr009/Coupled_Pert//tmproms/roms_src/../MCT/include -I/global/work/sfr009/Coupled_Pert//tmproms/roms_src/../ru

 Input Script  : 

 SVN Root URL  : https://www.myroms.org/svn/src/trunk
 SVN Revision  : exported

 Local Root    : /global/work/sfr009/Coupled_Pert/tmproms/roms_src
 Header Dir    : /home/sfr009/metroms/apps/arctic-20km//include
 Header file   : arctic-20km.h
 Analytical Dir: /home/sfr009/metroms/apps/arctic-20km//include

 Resolution, Grid 01: 0320x0240x035,  Parallel Nodes:  24,  Tiling: 003x008


 Physical Parameters, Grid: 01
 =============================

        720  ntimes            Number of timesteps for 3-D equations.
   1200.000  dt                Timestep size (s) for 3-D equations.
         20  ndtfast           Number of timesteps for 2-D equations between
                                 each 3D timestep.
          1  ERstr             Starting ensemble/perturbation run number.
          1  ERend             Ending ensemble/perturbation run number.
         -1  nrrec             Number of restart records to read from disk.
          T  LcycleRST         Switch to recycle time-records in restart file.
        720  nRST              Number of timesteps between the writing of data
                                 into restart fields.
        720  ninfo             Number of timesteps between print of information
                                 to standard output.
          T  ldefout           Switch to create a new output NetCDF file(s).
        720  nHIS              Number of timesteps between the writing fields
                                 into history file.
       2160  ndefHIS           Number of timesteps between creation of new
                                 history files.
         72  nQCK              Number of timesteps between the writing fields
                                 into quicksave file.
       2160  ndefQCK           Number of timesteps between creation of new
                                 brief snpashots files.
          1  ntsAVG            Starting timestep for the accumulation of output
                                 time-averaged data.
         72  nAVG              Number of timesteps between the writing of
                                 time-averaged data into averages file.
       2160  ndefAVG           Number of timesteps between creation of new
                                 time-averaged file.
 1.0000E+02  nl_tnu2(01)       NLM Horizontal, harmonic mixing coefficient
                                 (m2/s) for tracer 01: temp
 1.0000E+02  nl_tnu2(02)       NLM Horizontal, harmonic mixing coefficient
                                 (m2/s) for tracer 02: salt
 1.0000E+02  nl_visc2          NLM Horizontal, harmonic mixing coefficient
                                 (m2/s) for momentum.
          F  LuvSponge         Turning OFF sponge on horizontal momentum.
          F  LtracerSponge(01) Turning OFF sponge on tracer 01: temp
          F  LtracerSponge(02) Turning OFF sponge on tracer 02: salt
 1.0000E-06  Akt_bak(01)       Background vertical mixing coefficient (m2/s)
                                 for tracer 01: temp
 1.0000E-06  Akt_bak(02)       Background vertical mixing coefficient (m2/s)
                                 for tracer 02: salt
 5.0000E-06  Akv_bak           Background vertical mixing coefficient (m2/s)
                                 for momentum.
 0.0000E+00  rdrg              Linear bottom drag coefficient (m/s).
 3.0000E-03  rdrg2             Quadratic bottom drag coefficient.
 0.0000E+00  Zob               Bottom roughness (m).
 2.0000E+00  blk_ZQ            Height (m) of surface air humidity measurement.
 2.0000E+00  blk_ZT            Height (m) of surface air temperature measurement.
 1.0000E+01  blk_ZW            Height (m) of surface winds measurement.
          1  lmd_Jwt           Jerlov water type.
          2  Vtransform        S-coordinate transformation equation.
          2  Vstretching       S-coordinate stretching function.
 6.0000E+00  theta_s           S-coordinate surface control parameter.
 1.0000E-01  theta_b           S-coordinate bottom  control parameter.
    100.000  Tcline            S-coordinate surface/bottom layer width (m) used
                                 in vertical coordinate stretching.
   1025.000  rho0              Mean density (kg/m3) for Boussinesq approximation.
  14610.000  dstart            Time-stamp assigned to model initialization (days).
19700101.00  time_ref          Reference time for units attribute (yyyymmdd.dd)
 1.5000E+01  Tnudg(01)         Nudging/relaxation time scale (days)
                                 for tracer 01: temp
 1.5000E+01  Tnudg(02)         Nudging/relaxation time scale (days)
                                 for tracer 02: salt
 0.0000E+00  Znudg             Nudging/relaxation time scale (days)
                                 for free-surface.
 5.0000E+00  M2nudg            Nudging/relaxation time scale (days)
                                 for 2D momentum.
 1.5000E+01  M3nudg            Nudging/relaxation time scale (days)
                                 for 3D momentum.
 1.0000E+00  obcfac            Factor between passive and active
                                 open boundary conditions.
 1.0000E+01  iwrknudg          Width of the nudgingzone around the domain.

          F  VolCons(1)        NLM western  edge boundary volume conservation.
          F  VolCons(2)        NLM southern edge boundary volume conservation.
          F  VolCons(3)        NLM eastern  edge boundary volume conservation.
          F  VolCons(4)        NLM northern edge boundary volume conservation.
     10.000  T0                Background potential temperature (C) constant.
     35.000  S0                Background salinity (PSU) constant.
      1.000  gamma2            Slipperiness variable: free-slip (1.0) or 
                                                      no-slip (-1.0).
          T  LuvSrc            Turning ON  momentum point Sources/Sinks.
          F  LwSrc             Turning OFF volume influx point Sources/Sinks.
          F  LtracerSrc(01)    Turning OFF point Sources/Sinks on tracer 01: temp
          T  LtracerSrc(02)    Turning ON  point Sources/Sinks on tracer 02: salt
          F  LsshCLM           Turning OFF processing of SSH climatology.
          F  Lm2CLM            Turning OFF processing of 2D momentum climatology.
          F  Lm3CLM            Turning OFF processing of 3D momentum climatology.
          F  LtracerCLM(01)    Turning OFF processing of climatology tracer 01: temp
          F  LtracerCLM(02)    Turning OFF processing of climatology tracer 02: salt
          F  LnudgeM2CLM       Turning OFF nudging of 2D momentum climatology.
          F  LnudgeM3CLM       Turning OFF nudging of 3D momentum climatology.
          F  LnudgeTCLM(01)    Turning OFF nudging of climatology tracer 01: temp
          F  LnudgeTCLM(02)    Turning OFF nudging of climatology tracer 02: salt

          T  Hout(idFsur)      Write out free-surface.
          T  Hout(idUbar)      Write out 2D U-momentum component.
          T  Hout(idVbar)      Write out 2D V-momentum component.
          T  Hout(idUvel)      Write out 3D U-momentum component.
          T  Hout(idVvel)      Write out 3D V-momentum component.
          T  Hout(idu3dE)      Write out 3D U-wastward  component at RHO-points.
          T  Hout(idv3dN)      Write out 3D V-northward component at RHO-points.
          T  Hout(idTvar)      Write out tracer 01: temp
          T  Hout(idTvar)      Write out tracer 02: salt
          T  Hout(idDano)      Write out density anomaly.
          T  Hout(idVvis)      Write out vertical viscosity: AKv.
          T  Hout(idTdif)      Write out vertical diffusion: AKt(itemp).
          T  Hout(idSdif)      Write out vertical diffusion: AKt(isalt).
          T  Hout(idHsbl)      Write out depth of surface boundary layer.
          T  Hout(idHbbl)      Write out depth of bottom boundary layer.

          T  Qout(idUbar)      Write out 2D U-momentum component.
          T  Qout(idVbar)      Write out 2D V-momentum component.

          T  Aout(idFsur)      Write out averaged free-surface.
          T  Aout(idUvel)      Write out averaged 3D U-momentum component.
          T  Aout(idVvel)      Write out averaged 3D V-momentum component.
          T  Aout(idu3dE)      Write out averaged 3D U-eastward  at RHO-points.
          T  Aout(idv3dN)      Write out averaged 3D V-northward at RHO-points.
          T  Aout(idTvar)      Write out averaged tracer 01: temp
          T  Aout(idTvar)      Write out averaged tracer 02: salt

 Output/Input Files:

             Output Restart File:  /global/work/sfr009/Coupled_Pert//tmproms/run/arctic-20km/ocean_rst.nc
        Prefix for History Files:  /global/work/sfr009/Coupled_Pert//tmproms/run/arctic-20km/ocean_his
       Prefix for Averages Files:  /global/work/sfr009/Coupled_Pert//tmproms/run/arctic-20km/ocean_avg
        Physical parameters File:  
                 Input Grid File:  /home/sfr009/metroms/apps/common/grid/A20_grd_openBering.nc
    Input Nonlinear Initial File:  /global/work/sfr009/Coupled_Pert//tmproms/run/arctic-20km/ocean_ini.nc
        Input Sources/Sinks File:  /home/sfr009/metroms/apps/common/rivers/newA20_rivers_mitya.nc
           Input Forcing File 01:  /global/work/sfr009/Arctic-20km/openBering//tide.nc
           Input Forcing File 02:  /global/work/sfr009/Arctic-20km/ERA//AN_2009_unlim.nc
                                   /global/work/sfr009/Arctic-20km/ERA//AN_2010_unlim_pert.nc
           Input Forcing File 03:  /global/work/sfr009/Arctic-20km/ERA//FC_2009_unlim.nc
                                   /global/work/sfr009/Arctic-20km/ERA//FC_2010_unlim_pert.nc
             Input Boundary File:  /global/work/sfr009/Arctic-20km/openBering//ocean_2009_bry.nc
                                   /global/work/sfr009/Arctic-20km/openBering//ocean_2010_bry.nc

 Tile partition information for Grid 01:  0320x0240x0035  tiling: 003x008

     tile     Istr     Iend     Jstr     Jend     Npts

        0        1      107        1       30   112350
        1      108      214        1       30   112350
        2      215      320        1       30   111300
        3        1      107       31       60   112350
        4      108      214       31       60   112350
        5      215      320       31       60   111300
        6        1      107       61       90   112350
        7      108      214       61       90   112350
        8      215      320       61       90   111300
        9        1      107       91      120   112350
       10      108      214       91      120   112350
       11      215      320       91      120   111300
       12        1      107      121      150   112350
       13      108      214      121      150   112350
       14      215      320      121      150   111300
       15        1      107      151      180   112350
       16      108      214      151      180   112350
       17      215      320      151      180   111300
       18        1      107      181      210   112350
       19      108      214      181      210   112350
       20      215      320      181      210   111300
       21        1      107      211      240   112350
       22      108      214      211      240   112350
       23      215      320      211      240   111300

 Tile minimum and maximum fractional coordinates for Grid 01:
   (interior points only)

     tile     Xmin     Xmax     Ymin     Ymax     grid

        0     0.50   107.50     0.50    30.50  RHO-points
        1   107.50   214.50     0.50    30.50  RHO-points
        2   214.50   320.50     0.50    30.50  RHO-points
        3     0.50   107.50    30.50    60.50  RHO-points
        4   107.50   214.50    30.50    60.50  RHO-points
        5   214.50   320.50    30.50    60.50  RHO-points
        6     0.50   107.50    60.50    90.50  RHO-points
        7   107.50   214.50    60.50    90.50  RHO-points
        8   214.50   320.50    60.50    90.50  RHO-points
        9     0.50   107.50    90.50   120.50  RHO-points
       10   107.50   214.50    90.50   120.50  RHO-points
       11   214.50   320.50    90.50   120.50  RHO-points
       12     0.50   107.50   120.50   150.50  RHO-points
       13   107.50   214.50   120.50   150.50  RHO-points
       14   214.50   320.50   120.50   150.50  RHO-points
       15     0.50   107.50   150.50   180.50  RHO-points
       16   107.50   214.50   150.50   180.50  RHO-points
       17   214.50   320.50   150.50   180.50  RHO-points
       18     0.50   107.50   180.50   210.50  RHO-points
       19   107.50   214.50   180.50   210.50  RHO-points
       20   214.50   320.50   180.50   210.50  RHO-points
       21     0.50   107.50   210.50   240.50  RHO-points
       22   107.50   214.50   210.50   240.50  RHO-points
       23   214.50   320.50   210.50   240.50  RHO-points

        0     1.00   107.50     0.50    30.50    U-points
        1   107.50   214.50     0.50    30.50    U-points
        2   214.50   320.00     0.50    30.50    U-points
        3     1.00   107.50    30.50    60.50    U-points
        4   107.50   214.50    30.50    60.50    U-points
        5   214.50   320.00    30.50    60.50    U-points
        6     1.00   107.50    60.50    90.50    U-points
        7   107.50   214.50    60.50    90.50    U-points
        8   214.50   320.00    60.50    90.50    U-points
        9     1.00   107.50    90.50   120.50    U-points
       10   107.50   214.50    90.50   120.50    U-points
       11   214.50   320.00    90.50   120.50    U-points
       12     1.00   107.50   120.50   150.50    U-points
       13   107.50   214.50   120.50   150.50    U-points
       14   214.50   320.00   120.50   150.50    U-points
       15     1.00   107.50   150.50   180.50    U-points
       16   107.50   214.50   150.50   180.50    U-points
       17   214.50   320.00   150.50   180.50    U-points
       18     1.00   107.50   180.50   210.50    U-points
       19   107.50   214.50   180.50   210.50    U-points
       20   214.50   320.00   180.50   210.50    U-points
       21     1.00   107.50   210.50   240.50    U-points
       22   107.50   214.50   210.50   240.50    U-points
       23   214.50   320.00   210.50   240.50    U-points

        0     0.50   107.50     1.00    30.50    V-points
        1   107.50   214.50     1.00    30.50    V-points
        2   214.50   320.50     1.00    30.50    V-points
        3     0.50   107.50    30.50    60.50    V-points
        4   107.50   214.50    30.50    60.50    V-points
        5   214.50   320.50    30.50    60.50    V-points
        6     0.50   107.50    60.50    90.50    V-points
        7   107.50   214.50    60.50    90.50    V-points
        8   214.50   320.50    60.50    90.50    V-points
        9     0.50   107.50    90.50   120.50    V-points
       10   107.50   214.50    90.50   120.50    V-points
       11   214.50   320.50    90.50   120.50    V-points
       12     0.50   107.50   120.50   150.50    V-points
       13   107.50   214.50   120.50   150.50    V-points
       14   214.50   320.50   120.50   150.50    V-points
       15     0.50   107.50   150.50   180.50    V-points
       16   107.50   214.50   150.50   180.50    V-points
       17   214.50   320.50   150.50   180.50    V-points
       18     0.50   107.50   180.50   210.50    V-points
       19   107.50   214.50   180.50   210.50    V-points
       20   214.50   320.50   180.50   210.50    V-points
       21     0.50   107.50   210.50   240.00    V-points
       22   107.50   214.50   210.50   240.00    V-points
       23   214.50   320.50   210.50   240.00    V-points

 Maximum halo size in XI and ETA directions:

               HaloSizeI(1) =     238
               HaloSizeJ(1) =      84
                TileSide(1) =     113
                TileSize(1) =    4068


 Lateral Boundary Conditions: NLM
 ============================

 Variable               Grid  West Edge    South Edge   East Edge    North Edge
 ---------              ----  ----------   ----------   ----------   ----------

 zeta                     1   Chapman Imp  Closed       Chapman Imp  Chapman Imp

 ubar                     1   Flather      Closed       Flather      Flather

 vbar                     1   Flather      Closed       Flather      Flather

 u                        1   Rad + Nud    Closed       Rad + Nud    Rad + Nud

 v                        1   Rad + Nud    Closed       Rad + Nud    Rad + Nud

 temp                     1   Rad + Nud    Closed       Rad + Nud    Rad + Nud

 salt                     1   Rad + Nud    Closed       Rad + Nud    Rad + Nud

 Activated C-preprocessing Options:

 ARCTIC20KM          ROMS 3.6 - Arctic-20km - Coupled ROMS-CICE
 ALBEDO              Shortwave radiation from albedo equation.
 ANA_BSFLUX          Analytical kinematic bottom salinity flux.
 ANA_BTFLUX          Analytical kinematic bottom temperature flux.
 ANA_SRFLUX          Analytical kinematic shortwave radiation flux.
 ASSUMED_SHAPE       Using assumed-shape arrays.
 ATM_PRESS           Impose atmospheric pressure onto sea surface.
 AVERAGES            Writing out time-averaged nonlinear model fields.
 BULK_FLUXES         Surface bulk fluxes parameterization.
 COOL_SKIN           Surface cool skin correction.
 CURVGRID            Orthogonal curvilinear grid.
 DJ_GRADPS           Parabolic Splines density Jacobian (Shchepetkin, 2002).
 DOUBLE_PRECISION    Double precision arithmetic.
 EMINUSP             Compute Salt Flux using E-P.
 HDF5                Creating NetCDF-4/HDF5 format files.
 LMD_BKPP            KPP bottom boundary layer mixing.
 LMD_CONVEC          LMD convective mixing due to shear instability.
 LMD_DDMIX           LMD double-diffusive mixing.
 LMD_MIXING          Large/McWilliams/Doney interior mixing.
 LMD_NONLOCAL        LMD convective nonlocal transport.
 LMD_RIMIX           LMD diffusivity due to shear instability.
 LMD_SHAPIRO         Shapiro filtering boundary layer depth.
 LMD_SKPP            KPP surface boundary layer mixing.
 LONGWAVE            Compute net longwave radiation internally.
 MASKING             Land/Sea masking.
 MCT_LIB             Using Model Coupling Toolkit library.
 MIX_GEO_TS          Mixing of tracers along geopotential surfaces.
 MIX_S_UV            Mixing of momentum along constant S-surfaces.
 MPI                 MPI distributed-memory configuration.
 NONLINEAR           Nonlinear Model.
 NONLIN_EOS          Nonlinear Equation of State for seawater.
 NO_LBC_ATT          Not checking NetCDF global attribute NLM_LBC during restart.
 POWER_LAW           Power-law shape time-averaging barotropic filter.
 PROFILE             Time profiling activated .
 !RST_SINGLE         Double precision fields in restart NetCDF file.
 SALINITY            Using salinity.
 SOLAR_SOURCE        Solar Radiation Source Term.
 SOLVE3D             Solving 3D Primitive Equations.
 TS_A4HADVECTION     Fourth-order Akima horizontal advection of tracers.
 TS_A4VADVECTION     Fourth-order Akima vertical advection of tracers.
 TS_DIF2             Harmonic mixing of tracers.
 UV_ADV              Advection of momentum.
 UV_COR              Coriolis term.
 UV_U3HADVECTION     Third-order upstream horizontal advection of 3D momentum.
 UV_C4VADVECTION     Fourth-order centered vertical advection of momentum.
 UV_QDRAG            Quadratic bottom stress.
 UV_VIS2             Harmonic mixing of momentum.
 UV_SMAGORINSKY      Smagorinksy-like time-dependent viscosity coefficients.
 VAR_RHO_2D          Variable density barotropic mode.
 VISC_3DCOEF         Horizontal, time-dependent 3D viscosity coefficient.

 CHECKADJ - use caution when activating: UV_SMAGORINSKY
            REASON: stability problems, WARNING.

 Process Information:

 Node #  0 (pid=   21330) is active.
 Node # 12 (pid=   21342) is active.
 Node #  4 (pid=   21334) is active.
 Node #  8 (pid=   21338) is active.
 Node # 16 (pid=   21346) is active.
 Node # 20 (pid=   62490) is active.
 Node #  9 (pid=   21339) is active.
 Node #  5 (pid=   21335) is active.
 Node # 17 (pid=   21347) is active.
 Node # 13 (pid=   21343) is active.
 Node # 21 (pid=   62491) is active.
 Node #  1 (pid=   21331) is active.
 Node #  3 (pid=   21333) is active.
 Node #  7 (pid=   21337) is active.
 Node # 11 (pid=   21341) is active.
 Node # 15 (pid=   21345) is active.
 Node # 19 (pid=   62489) is active.
 Node # 23 (pid=   62493) is active.
 Node #  2 (pid=   21332) is active.
 Node #  6 (pid=   21336) is active.
 Node # 10 (pid=   21340) is active.
 Node # 18 (pid=   21348) is active.
 Node # 14 (pid=   21344) is active.
 Node # 22 (pid=   62492) is active.
  ROMS Ocean Coupler: MCTWorld_init called
  ROMS Ocean Coupler: calling GlobalSegMap_init
 cice2ocn_AV, Exportlist AICE:freshAI:fsaltAI:fhocnAI:fswthruAI:strocnx:strocny
 ocn2cice_AV, Exportlist SST:SSS:FRZMLT:u:v:SSH
  ROMS Ocean Coupler: calling Router_init. Done

 INITIAL: Configuring and initializing forward nonlinear model ...
 *******
forrtl: error (78): process killed (SIGTERM)
Image              PC                Routine            Line        Source             
libmlx4-rdmav2.so  00007F9D6D1ADE66  Unknown               Unknown  Unknown
mca_btl_openib.so  00007F9D707E4B64  Unknown               Unknown  Unknown
libopen-pal.so.6   00007F9D78350F8A  Unknown               Unknown  Unknown
libmpi.so.1        00007F9D7BB04226  Unknown               Unknown  Unknown
mca_coll_tuned.so  00007F9D6DFCDFA6  Unknown               Unknown  Unknown
mca_coll_tuned.so  00007F9D6DFCDB9D  Unknown               Unknown  Unknown
mca_coll_tuned.so  00007F9D6DFC33A5  Unknown               Unknown  Unknown
libmpi.so.1        00007F9D7BB19BBD  Unknown               Unknown  Unknown
libmpi_mpifh.so.2  00007F9D7BDF6076  Unknown               Unknown  Unknown
oceanM             000000000041518D  Unknown               Unknown  Unknown
oceanM             000000000087DB76  Unknown               Unknown  Unknown
oceanM             00000000007AF136  Unknown               Unknown  Unknown
oceanM             00000000005279B4  Unknown               Unknown  Unknown
oceanM             0000000000405FF6  Unknown               Unknown  Unknown
oceanM             0000000000405354  Unknown               Unknown  Unknown
oceanM             0000000000404F2C  Unknown               Unknown  Unknown
libc.so.6          00007F9D79C6FD1D  Unknown               Unknown  Unknown
oceanM             0000000000404E29  Unknown               Unknown  Unknown
forrtl: error (78): process killed (SIGTERM)
Image              PC                Routine            Line        Source             
mca_btl_vader.so   00007F3F2D615255  Unknown               Unknown  Unknown
libopen-pal.so.6   00007F3F362ADF8A  Unknown               Unknown  Unknown
libmpi.so.1        00007F3F39A61226  Unknown               Unknown  Unknown
mca_coll_tuned.so  00007F3F2BF2AFA6  Unknown               Unknown  Unknown
mca_coll_tuned.so  00007F3F2BF2AB9D  Unknown               Unknown  Unknown
mca_coll_tuned.so  00007F3F2BF203A5  Unknown               Unknown  Unknown
libmpi.so.1        00007F3F39A76BBD  Unknown               Unknown  Unknown
libmpi_mpifh.so.2  00007F3F39D53076  Unknown               Unknown  Unknown
oceanM             000000000041518D  Unknown               Unknown  Unknown
oceanM             000000000087DB76  Unknown               Unknown  Unknown
oceanM             00000000007AF136  Unknown               Unknown  Unknown
oceanM             00000000005279B4  Unknown               Unknown  Unknown
oceanM             0000000000405FF6  Unknown               Unknown  Unknown
oceanM             0000000000405354  Unknown               Unknown  Unknown
oceanM             0000000000404F2C  Unknown               Unknown  Unknown
libc.so.6          00007F3F37BCCD1D  Unknown               Unknown  Unknown
oceanM             0000000000404E29  Unknown               Unknown  Unknown
forrtl: error (78): process killed (SIGTERM)
Image              PC                Routine            Line        Source             
mca_btl_vader.so   00007FB252536244  Unknown               Unknown  Unknown
libopen-pal.so.6   00007FB25B1CEF8A  Unknown               Unknown  Unknown
libmpi.so.1        00007FB25E982226  Unknown               Unknown  Unknown
mca_coll_tuned.so  00007FB250E4BFA6  Unknown               Unknown  Unknown
mca_coll_tuned.so  00007FB250E4BB9D  Unknown               Unknown  Unknown
mca_coll_tuned.so  00007FB250E413A5  Unknown               Unknown  Unknown
libmpi.so.1        00007FB25E997BBD  Unknown               Unknown  Unknown
libmpi_mpifh.so.2  00007FB25EC74076  Unknown               Unknown  Unknown
oceanM             000000000041518D  Unknown               Unknown  Unknown
oceanM             000000000087DB76  Unknown               Unknown  Unknown
oceanM             00000000007AF136  Unknown               Unknown  Unknown
oceanM             00000000005279B4  Unknown               Unknown  Unknown
oceanM             0000000000405FF6  Unknown               Unknown  Unknown
oceanM             0000000000405354  Unknown               Unknown  Unknown
oceanM             0000000000404F2C  Unknown               Unknown  Unknown
libc.so.6          00007FB25CAEDD1D  Unknown               Unknown  Unknown
oceanM             0000000000404E29  Unknown               Unknown  Unknown
forrtl: error (78): process killed (SIGTERM)
Image              PC                Routine            Line        Source             
mca_btl_vader.so   00007FC5BCBCB255  Unknown               Unknown  Unknown
libopen-pal.so.6   00007FC5C5863F8A  Unknown               Unknown  Unknown
libmpi.so.1        00007FC5C9017226  Unknown               Unknown  Unknown
mca_coll_tuned.so  00007FC5BB4E11AB  Unknown               Unknown  Unknown
mca_coll_tuned.so  00007FC5BB4E0B9D  Unknown               Unknown  Unknown
mca_coll_tuned.so  00007FC5BB4D63A5  Unknown               Unknown  Unknown
libmpi.so.1        00007FC5C902CBBD  Unknown               Unknown  Unknown
libmpi_mpifh.so.2  00007FC5C9309076  Unknown               Unknown  Unknown
oceanM             000000000041518D  Unknown               Unknown  Unknown
oceanM             000000000087DB76  Unknown               Unknown  Unknown
oceanM             00000000007AF136  Unknown               Unknown  Unknown
oceanM             00000000005279B4  Unknown               Unknown  Unknown
oceanM             0000000000405FF6  Unknown               Unknown  Unknown
oceanM             0000000000405354  Unknown               Unknown  Unknown
oceanM             0000000000404F2C  Unknown               Unknown  Unknown
libc.so.6          00007FC5C7182D1D  Unknown               Unknown  Unknown
oceanM             0000000000404E29  Unknown               Unknown  Unknown
forrtl: error (78): process killed (SIGTERM)
Image              PC                Routine            Line        Source             
libopen-pal.so.6   00007F14E6C26F7C  Unknown               Unknown  Unknown
libmpi.so.1        00007F14EA3DA226  Unknown               Unknown  Unknown
mca_coll_tuned.so  00007F14DC8A41AB  Unknown               Unknown  Unknown
mca_coll_tuned.so  00007F14DC8A3B9D  Unknown               Unknown  Unknown
mca_coll_tuned.so  00007F14DC8993A5  Unknown               Unknown  Unknown
libmpi.so.1        00007F14EA3EFBBD  Unknown               Unknown  Unknown
libmpi_mpifh.so.2  00007F14EA6CC076  Unknown               Unknown  Unknown
oceanM             000000000041518D  Unknown               Unknown  Unknown
oceanM             000000000087DB76  Unknown               Unknown  Unknown
oceanM             00000000007AF136  Unknown               Unknown  Unknown
oceanM             00000000005279B4  Unknown               Unknown  Unknown
oceanM             0000000000405FF6  Unknown               Unknown  Unknown
oceanM             0000000000405354  Unknown               Unknown  Unknown
oceanM             0000000000404F2C  Unknown               Unknown  Unknown
libc.so.6          00007F14E8545D1D  Unknown               Unknown  Unknown
oceanM             0000000000404E29  Unknown               Unknown  Unknown
forrtl: error (78): process killed (SIGTERM)
Image              PC                Routine            Line        Source             
mca_btl_vader.so   00007F07A706E255  Unknown               Unknown  Unknown
libopen-pal.so.6   00007F07AFD06F8A  Unknown               Unknown  Unknown
libmpi.so.1        00007F07B34BA226  Unknown               Unknown  Unknown
mca_coll_tuned.so  00007F07A59841AB  Unknown               Unknown  Unknown
mca_coll_tuned.so  00007F07A5983B9D  Unknown               Unknown  Unknown
mca_coll_tuned.so  00007F07A59793A5  Unknown               Unknown  Unknown
libmpi.so.1        00007F07B34CFBBD  Unknown               Unknown  Unknown
libmpi_mpifh.so.2  00007F07B37AC076  Unknown               Unknown  Unknown
oceanM             000000000041518D  Unknown               Unknown  Unknown
oceanM             000000000087DB76  Unknown               Unknown  Unknown
oceanM             00000000007AF136  Unknown               Unknown  Unknown
oceanM             00000000005279B4  Unknown               Unknown  Unknown
oceanM             0000000000405FF6  Unknown               Unknown  Unknown
oceanM             0000000000405354  Unknown               Unknown  Unknown
oceanM             0000000000404F2C  Unknown               Unknown  Unknown
libc.so.6          00007F07B1625D1D  Unknown               Unknown  Unknown
oceanM             0000000000404E29  Unknown               Unknown  Unknown
forrtl: error (78): process killed (SIGTERM)
Image              PC                Routine            Line        Source             
mca_btl_vader.so   00007F57E679D255  Unknown               Unknown  Unknown
libopen-pal.so.6   00007F57EF435F8A  Unknown               Unknown  Unknown
libmpi.so.1        00007F57F2BE9226  Unknown               Unknown  Unknown
mca_coll_tuned.so  00007F57E50B31AB  Unknown               Unknown  Unknown
mca_coll_tuned.so  00007F57E50B2B9D  Unknown               Unknown  Unknown
mca_coll_tuned.so  00007F57E50A83A5  Unknown               Unknown  Unknown
libmpi.so.1        00007F57F2BFEBBD  Unknown               Unknown  Unknown
libmpi_mpifh.so.2  00007F57F2EDB076  Unknown               Unknown  Unknown
oceanM             000000000041518D  Unknown               Unknown  Unknown
oceanM             000000000087DB76  Unknown               Unknown  Unknown
oceanM             00000000007AF136  Unknown               Unknown  Unknown
oceanM             00000000005279B4  Unknown               Unknown  Unknown
oceanM             0000000000405FF6  Unknown               Unknown  Unknown
oceanM             0000000000405354  Unknown               Unknown  Unknown
oceanM             0000000000404F2C  Unknown               Unknown  Unknown
libc.so.6          00007F57F0D54D1D  Unknown               Unknown  Unknown
oceanM             0000000000404E29  Unknown               Unknown  Unknown
forrtl: error (78): process killed (SIGTERM)
Image              PC                Routine            Line        Source             
mca_btl_vader.so   00007FF268353310  Unknown               Unknown  Unknown
libopen-pal.so.6   00007FF270FEBF8A  Unknown               Unknown  Unknown
libmpi.so.1        00007FF27479F226  Unknown               Unknown  Unknown
mca_coll_tuned.so  00007FF266C691AB  Unknown               Unknown  Unknown
mca_coll_tuned.so  00007FF266C68B9D  Unknown               Unknown  Unknown
mca_coll_tuned.so  00007FF266C5E3A5  Unknown               Unknown  Unknown
libmpi.so.1        00007FF2747B4BBD  Unknown               Unknown  Unknown
libmpi_mpifh.so.2  00007FF274A91076  Unknown               Unknown  Unknown
oceanM             000000000041518D  Unknown               Unknown  Unknown
oceanM             000000000087DB76  Unknown               Unknown  Unknown
oceanM             00000000007AF136  Unknown               Unknown  Unknown
oceanM             00000000005279B4  Unknown               Unknown  Unknown
oceanM             0000000000405FF6  Unknown               Unknown  Unknown
oceanM             0000000000405354  Unknown               Unknown  Unknown
oceanM             0000000000404F2C  Unknown               Unknown  Unknown
libc.so.6          00007FF27290AD1D  Unknown               Unknown  Unknown
oceanM             0000000000404E29  Unknown               Unknown  Unknown
forrtl: error (78): process killed (SIGTERM)
Image              PC                Routine            Line        Source             
mca_btl_vader.so   00007FA393635244  Unknown               Unknown  Unknown
libopen-pal.so.6   00007FA39C2CDF8A  Unknown               Unknown  Unknown
libmpi.so.1        00007FA39FA81226  Unknown               Unknown  Unknown
mca_coll_tuned.so  00007FA391F4B1AB  Unknown               Unknown  Unknown
mca_coll_tuned.so  00007FA391F4AB9D  Unknown               Unknown  Unknown
mca_coll_tuned.so  00007FA391F403A5  Unknown               Unknown  Unknown
libmpi.so.1        00007FA39FA96BBD  Unknown               Unknown  Unknown
libmpi_mpifh.so.2  00007FA39FD73076  Unknown               Unknown  Unknown
oceanM             000000000041518D  Unknown               Unknown  Unknown
oceanM             000000000087DB76  Unknown               Unknown  Unknown
oceanM             00000000007AF136  Unknown               Unknown  Unknown
oceanM             00000000005279B4  Unknown               Unknown  Unknown
oceanM             0000000000405FF6  Unknown               Unknown  Unknown
oceanM             0000000000405354  Unknown               Unknown  Unknown
oceanM             0000000000404F2C  Unknown               Unknown  Unknown
libc.so.6          00007FA39DBECD1D  Unknown               Unknown  Unknown
oceanM             0000000000404E29  Unknown               Unknown  Unknown
forrtl: error (78): process killed (SIGTERM)
Image              PC                Routine            Line        Source             
mca_btl_vader.so   00007F554660723D  Unknown               Unknown  Unknown
libopen-pal.so.6   00007F554F29FF8A  Unknown               Unknown  Unknown
libmpi.so.1        00007F5552A53226  Unknown               Unknown  Unknown
mca_coll_tuned.so  00007F5544F1D1AB  Unknown               Unknown  Unknown
mca_coll_tuned.so  00007F5544F1CB9D  Unknown               Unknown  Unknown
mca_coll_tuned.so  00007F5544F123A5  Unknown               Unknown  Unknown
libmpi.so.1        00007F5552A68BBD  Unknown               Unknown  Unknown
libmpi_mpifh.so.2  00007F5552D45076  Unknown               Unknown  Unknown
oceanM             000000000041518D  Unknown               Unknown  Unknown
oceanM             000000000087DB76  Unknown               Unknown  Unknown
oceanM             00000000007AF136  Unknown               Unknown  Unknown
oceanM             00000000005279B4  Unknown               Unknown  Unknown
oceanM             0000000000405FF6  Unknown               Unknown  Unknown
oceanM             0000000000405354  Unknown               Unknown  Unknown
oceanM             0000000000404F2C  Unknown               Unknown  Unknown
libc.so.6          00007F5550BBED1D  Unknown               Unknown  Unknown
oceanM             0000000000404E29  Unknown               Unknown  Unknown
forrtl: error (78): process killed (SIGTERM)
Image              PC                Routine            Line        Source             
mca_btl_vader.so   00007FC661C09312  Unknown               Unknown  Unknown
libopen-pal.so.6   00007FC66A8A1F8A  Unknown               Unknown  Unknown
libmpi.so.1        00007FC66E055226  Unknown               Unknown  Unknown
mca_coll_tuned.so  00007FC66051F1AB  Unknown               Unknown  Unknown
mca_coll_tuned.so  00007FC66051EB9D  Unknown               Unknown  Unknown
mca_coll_tuned.so  00007FC6605143A5  Unknown               Unknown  Unknown
libmpi.so.1        00007FC66E06ABBD  Unknown               Unknown  Unknown
libmpi_mpifh.so.2  00007FC66E347076  Unknown               Unknown  Unknown
oceanM             000000000041518D  Unknown               Unknown  Unknown
oceanM             000000000087DB76  Unknown               Unknown  Unknown
oceanM             00000000007AF136  Unknown               Unknown  Unknown
oceanM             00000000005279B4  Unknown               Unknown  Unknown
oceanM             0000000000405FF6  Unknown               Unknown  Unknown
oceanM             0000000000405354  Unknown               Unknown  Unknown
oceanM             0000000000404F2C  Unknown               Unknown  Unknown
libc.so.6          00007FC66C1C0D1D  Unknown               Unknown  Unknown
oceanM             0000000000404E29  Unknown               Unknown  Unknown
forrtl: error (78): process killed (SIGTERM)
Image              PC                Routine            Line        Source             
mca_btl_vader.so   00007F14C84CA21F  Unknown               Unknown  Unknown
libopen-pal.so.6   00007F14D1162F8A  Unknown               Unknown  Unknown
libmpi.so.1        00007F14D4916226  Unknown               Unknown  Unknown
mca_coll_tuned.so  00007F14C6DE01AB  Unknown               Unknown  Unknown
mca_coll_tuned.so  00007F14C6DDFB9D  Unknown               Unknown  Unknown
mca_coll_tuned.so  00007F14C6DD53A5  Unknown               Unknown  Unknown
libmpi.so.1        00007F14D492BBBD  Unknown               Unknown  Unknown
libmpi_mpifh.so.2  00007F14D4C08076  Unknown               Unknown  Unknown
oceanM             000000000041518D  Unknown               Unknown  Unknown
oceanM             000000000087DB76  Unknown               Unknown  Unknown
oceanM             00000000007AF136  Unknown               Unknown  Unknown
oceanM             00000000005279B4  Unknown               Unknown  Unknown
oceanM             0000000000405FF6  Unknown               Unknown  Unknown
oceanM             0000000000405354  Unknown               Unknown  Unknown
oceanM             0000000000404F2C  Unknown               Unknown  Unknown
libc.so.6          00007F14D2A81D1D  Unknown               Unknown  Unknown
oceanM             0000000000404E29  Unknown               Unknown  Unknown
forrtl: error (78): process killed (SIGTERM)
Image              PC                Routine            Line        Source             
mca_btl_openib.so  00007F287C81EA25  Unknown               Unknown  Unknown
libopen-pal.so.6   00007F288438AF8A  Unknown               Unknown  Unknown
libmpi.so.1        00007F2887B3E226  Unknown               Unknown  Unknown
mca_coll_tuned.so  00007F287A0081AB  Unknown               Unknown  Unknown
mca_coll_tuned.so  00007F287A007B9D  Unknown               Unknown  Unknown
mca_coll_tuned.so  00007F2879FFD3A5  Unknown               Unknown  Unknown
libmpi.so.1        00007F2887B53BBD  Unknown               Unknown  Unknown
libmpi_mpifh.so.2  00007F2887E30076  Unknown               Unknown  Unknown
oceanM             000000000041518D  Unknown               Unknown  Unknown
oceanM             000000000087DB76  Unknown               Unknown  Unknown
oceanM             00000000007AF136  Unknown               Unknown  Unknown
oceanM             00000000005279B4  Unknown               Unknown  Unknown
oceanM             0000000000405FF6  Unknown               Unknown  Unknown
oceanM             0000000000405354  Unknown               Unknown  Unknown
oceanM             0000000000404F2C  Unknown               Unknown  Unknown
libc.so.6          00007F2885CA9D1D  Unknown               Unknown  Unknown
oceanM             0000000000404E29  Unknown               Unknown  Unknown
forrtl: error (78): process killed (SIGTERM)
Image              PC                Routine            Line        Source             
mca_btl_vader.so   00007F560D23721F  Unknown               Unknown  Unknown
libopen-pal.so.6   00007F5615ECFF8A  Unknown               Unknown  Unknown
libmpi.so.1        00007F5619683226  Unknown               Unknown  Unknown
mca_coll_tuned.so  00007F560BB4D1AB  Unknown               Unknown  Unknown
mca_coll_tuned.so  00007F560BB4CB9D  Unknown               Unknown  Unknown
mca_coll_tuned.so  00007F560BB423A5  Unknown               Unknown  Unknown
libmpi.so.1        00007F5619698BBD  Unknown               Unknown  Unknown
libmpi_mpifh.so.2  00007F5619975076  Unknown               Unknown  Unknown
oceanM             000000000041518D  Unknown               Unknown  Unknown
oceanM             000000000087DB76  Unknown               Unknown  Unknown
oceanM             00000000007AF136  Unknown               Unknown  Unknown
oceanM             00000000005279B4  Unknown               Unknown  Unknown
oceanM             0000000000405FF6  Unknown               Unknown  Unknown
oceanM             0000000000405354  Unknown               Unknown  Unknown
oceanM             0000000000404F2C  Unknown               Unknown  Unknown
libc.so.6          00007F56177EED1D  Unknown               Unknown  Unknown
oceanM             0000000000404E29  Unknown               Unknown  Unknown
forrtl: error (78): process killed (SIGTERM)
Image              PC                Routine            Line        Source             
mca_btl_vader.so   00007FAE94D61319  Unknown               Unknown  Unknown
libopen-pal.so.6   00007FAE9D9F9F8A  Unknown               Unknown  Unknown
libmpi.so.1        00007FAEA11AD226  Unknown               Unknown  Unknown
mca_coll_tuned.so  00007FAE93676FA6  Unknown               Unknown  Unknown
mca_coll_tuned.so  00007FAE93676B9D  Unknown               Unknown  Unknown
mca_coll_tuned.so  00007FAE9366C3A5  Unknown               Unknown  Unknown
libmpi.so.1        00007FAEA11C2BBD  Unknown               Unknown  Unknown
libmpi_mpifh.so.2  00007FAEA149F076  Unknown               Unknown  Unknown
oceanM             000000000041518D  Unknown               Unknown  Unknown
oceanM             000000000087DB76  Unknown               Unknown  Unknown
oceanM             00000000007AF136  Unknown               Unknown  Unknown
oceanM             00000000005279B4  Unknown               Unknown  Unknown
oceanM             0000000000405FF6  Unknown               Unknown  Unknown
oceanM             0000000000405354  Unknown               Unknown  Unknown
oceanM             0000000000404F2C  Unknown               Unknown  Unknown
libc.so.6          00007FAE9F318D1D  Unknown               Unknown  Unknown
oceanM             0000000000404E29  Unknown               Unknown  Unknown
forrtl: error (78): process killed (SIGTERM)
Image              PC                Routine            Line        Source             
mca_btl_vader.so   00007F39B1F7722F  Unknown               Unknown  Unknown
libopen-pal.so.6   00007F39BAD85F8A  Unknown               Unknown  Unknown
libmpi.so.1        00007F39BE539226  Unknown               Unknown  Unknown
mca_coll_tuned.so  00007F39B088CFA6  Unknown               Unknown  Unknown
mca_coll_tuned.so  00007F39B088CB9D  Unknown               Unknown  Unknown
mca_coll_tuned.so  00007F39B08823A5  Unknown               Unknown  Unknown
libmpi.so.1        00007F39BE54EBBD  Unknown               Unknown  Unknown
libmpi_mpifh.so.2  00007F39BE82B076  Unknown               Unknown  Unknown
oceanM             000000000041518D  Unknown               Unknown  Unknown
oceanM             000000000087DB76  Unknown               Unknown  Unknown
oceanM             00000000007AF136  Unknown               Unknown  Unknown
oceanM             00000000005279B4  Unknown               Unknown  Unknown
oceanM             0000000000405FF6  Unknown               Unknown  Unknown
oceanM             0000000000405354  Unknown               Unknown  Unknown
oceanM             0000000000404F2C  Unknown               Unknown  Unknown
libc.so.6          00007F39BC6A4D1D  Unknown               Unknown  Unknown
oceanM             0000000000404E29  Unknown               Unknown  Unknown
forrtl: error (78): process killed (SIGTERM)
Image              PC                Routine            Line        Source             
mca_btl_openib.so  00007F4129798C0C  Unknown               Unknown  Unknown
libopen-pal.so.6   00007F4131304F8A  Unknown               Unknown  Unknown
libmpi.so.1        00007F4134AB8226  Unknown               Unknown  Unknown
mca_coll_tuned.so  00007F4126F81FA6  Unknown               Unknown  Unknown
mca_coll_tuned.so  00007F4126F81B9D  Unknown               Unknown  Unknown
mca_coll_tuned.so  00007F4126F773A5  Unknown               Unknown  Unknown
libmpi.so.1        00007F4134ACDBBD  Unknown               Unknown  Unknown
libmpi_mpifh.so.2  00007F4134DAA076  Unknown               Unknown  Unknown
oceanM             000000000041518D  Unknown               Unknown  Unknown
oceanM             000000000087DB76  Unknown               Unknown  Unknown
oceanM             00000000007AF136  Unknown               Unknown  Unknown
oceanM             00000000005279B4  Unknown               Unknown  Unknown
oceanM             0000000000405FF6  Unknown               Unknown  Unknown
oceanM             0000000000405354  Unknown               Unknown  Unknown
oceanM             0000000000404F2C  Unknown               Unknown  Unknown
libc.so.6          00007F4132C23D1D  Unknown               Unknown  Unknown
oceanM             0000000000404E29  Unknown               Unknown  Unknown
forrtl: error (78): process killed (SIGTERM)
Image              PC                Routine            Line        Source             
mca_btl_vader.so   00007FD295662255  Unknown               Unknown  Unknown
libopen-pal.so.6   00007FD29E2FAF8A  Unknown               Unknown  Unknown
libmpi.so.1        00007FD2A1AAE226  Unknown               Unknown  Unknown
mca_coll_tuned.so  00007FD293F77FA6  Unknown               Unknown  Unknown
mca_coll_tuned.so  00007FD293F77B9D  Unknown               Unknown  Unknown
mca_coll_tuned.so  00007FD293F6D3A5  Unknown               Unknown  Unknown
libmpi.so.1        00007FD2A1AC3BBD  Unknown               Unknown  Unknown
libmpi_mpifh.so.2  00007FD2A1DA0076  Unknown               Unknown  Unknown
oceanM             000000000041518D  Unknown               Unknown  Unknown
oceanM             000000000087DB76  Unknown               Unknown  Unknown
oceanM             00000000007AF136  Unknown               Unknown  Unknown
oceanM             00000000005279B4  Unknown               Unknown  Unknown
oceanM             0000000000405FF6  Unknown               Unknown  Unknown
oceanM             0000000000405354  Unknown               Unknown  Unknown
oceanM             0000000000404F2C  Unknown               Unknown  Unknown
libc.so.6          00007FD29FC19D1D  Unknown               Unknown  Unknown
oceanM             0000000000404E29  Unknown               Unknown  Unknown
forrtl: error (78): process killed (SIGTERM)
Image              PC                Routine            Line        Source             
mca_btl_vader.so   00007F0460480250  Unknown               Unknown  Unknown
libopen-pal.so.6   00007F0469118F8A  Unknown               Unknown  Unknown
libmpi.so.1        00007F046C8CC226  Unknown               Unknown  Unknown
mca_coll_tuned.so  00007F045ED961AB  Unknown               Unknown  Unknown
mca_coll_tuned.so  00007F045ED95B9D  Unknown               Unknown  Unknown
mca_coll_tuned.so  00007F045ED8B3A5  Unknown               Unknown  Unknown
libmpi.so.1        00007F046C8E1BBD  Unknown               Unknown  Unknown
libmpi_mpifh.so.2  00007F046CBBE076  Unknown               Unknown  Unknown
oceanM             000000000041518D  Unknown               Unknown  Unknown
oceanM             000000000087DB76  Unknown               Unknown  Unknown
oceanM             00000000007AF136  Unknown               Unknown  Unknown
oceanM             00000000005279B4  Unknown               Unknown  Unknown
oceanM             0000000000405FF6  Unknown               Unknown  Unknown
oceanM             0000000000405354  Unknown               Unknown  Unknown
oceanM             0000000000404F2C  Unknown               Unknown  Unknown
libc.so.6          00007F046AA37D1D  Unknown               Unknown  Unknown
oceanM             0000000000404E29  Unknown               Unknown  Unknown
forrtl: error (78): process killed (SIGTERM)
Image              PC                Routine            Line        Source             
mca_btl_vader.so   00007F4D907CE310  Unknown               Unknown  Unknown
libopen-pal.so.6   00007F4D99466F8A  Unknown               Unknown  Unknown
libmpi.so.1        00007F4D9CC1A226  Unknown               Unknown  Unknown
mca_coll_tuned.so  00007F4D8F0E41AB  Unknown               Unknown  Unknown
mca_coll_tuned.so  00007F4D8F0E3B9D  Unknown               Unknown  Unknown
mca_coll_tuned.so  00007F4D8F0D93A5  Unknown               Unknown  Unknown
libmpi.so.1        00007F4D9CC2FBBD  Unknown               Unknown  Unknown
libmpi_mpifh.so.2  00007F4D9CF0C076  Unknown               Unknown  Unknown
oceanM             000000000041518D  Unknown               Unknown  Unknown
oceanM             000000000087DB76  Unknown               Unknown  Unknown
oceanM             00000000007AF136  Unknown               Unknown  Unknown
oceanM             00000000005279B4  Unknown               Unknown  Unknown
oceanM             0000000000405FF6  Unknown               Unknown  Unknown
oceanM             0000000000405354  Unknown               Unknown  Unknown
oceanM             0000000000404F2C  Unknown               Unknown  Unknown
libc.so.6          00007F4D9AD85D1D  Unknown               Unknown  Unknown
oceanM             0000000000404E29  Unknown               Unknown  Unknown
forrtl: error (78): process killed (SIGTERM)
Image              PC                Routine            Line        Source             
mca_btl_vader.so   00007F873D1C1239  Unknown               Unknown  Unknown
libopen-pal.so.6   00007F8745E59F8A  Unknown               Unknown  Unknown
libmpi.so.1        00007F874960D226  Unknown               Unknown  Unknown
mca_coll_tuned.so  00007F873BAD71AB  Unknown               Unknown  Unknown
mca_coll_tuned.so  00007F873BAD6B9D  Unknown               Unknown  Unknown
mca_coll_tuned.so  00007F873BACC3A5  Unknown               Unknown  Unknown
libmpi.so.1        00007F8749622BBD  Unknown               Unknown  Unknown
libmpi_mpifh.so.2  00007F87498FF076  Unknown               Unknown  Unknown
oceanM             000000000041518D  Unknown               Unknown  Unknown
oceanM             000000000087DB76  Unknown               Unknown  Unknown
oceanM             00000000007AF136  Unknown               Unknown  Unknown
oceanM             00000000005279B4  Unknown               Unknown  Unknown
oceanM             0000000000405FF6  Unknown               Unknown  Unknown
oceanM             0000000000405354  Unknown               Unknown  Unknown
oceanM             0000000000404F2C  Unknown               Unknown  Unknown
libc.so.6          00007F8747778D1D  Unknown               Unknown  Unknown
oceanM             0000000000404E29  Unknown               Unknown  Unknown
forrtl: error (78): process killed (SIGTERM)
Image              PC                Routine            Line        Source             
mca_btl_vader.so   00007FDA9F20D255  Unknown               Unknown  Unknown
libopen-pal.so.6   00007FDAA7EA5F8A  Unknown               Unknown  Unknown
libmpi.so.1        00007FDAAB659226  Unknown               Unknown  Unknown
mca_coll_tuned.so  00007FDA9DB231AB  Unknown               Unknown  Unknown
mca_coll_tuned.so  00007FDA9DB22B9D  Unknown               Unknown  Unknown
mca_coll_tuned.so  00007FDA9DB183A5  Unknown               Unknown  Unknown
libmpi.so.1        00007FDAAB66EBBD  Unknown               Unknown  Unknown
libmpi_mpifh.so.2  00007FDAAB94B076  Unknown               Unknown  Unknown
oceanM             000000000041518D  Unknown               Unknown  Unknown
oceanM             000000000087DB76  Unknown               Unknown  Unknown
oceanM             00000000007AF136  Unknown               Unknown  Unknown
oceanM             00000000005279B4  Unknown               Unknown  Unknown
oceanM             0000000000405FF6  Unknown               Unknown  Unknown
oceanM             0000000000405354  Unknown               Unknown  Unknown
oceanM             0000000000404F2C  Unknown               Unknown  Unknown
libc.so.6          00007FDAA97C4D1D  Unknown               Unknown  Unknown
oceanM             0000000000404E29  Unknown               Unknown  Unknown
forrtl: error (78): process killed (SIGTERM)
Image              PC                Routine            Line        Source             
libpthread.so.0    00007F3E9FA55453  Unknown               Unknown  Unknown
libmlx4-rdmav2.so  00007F3E92C11E6B  Unknown               Unknown  Unknown
mca_btl_openib.so  00007F3E96248B64  Unknown               Unknown  Unknown
libopen-pal.so.6   00007F3E9DDB4F8A  Unknown               Unknown  Unknown
libmpi.so.1        00007F3EA1568226  Unknown               Unknown  Unknown
mca_coll_tuned.so  00007F3E93A321AB  Unknown               Unknown  Unknown
mca_coll_tuned.so  00007F3E93A31B9D  Unknown               Unknown  Unknown
mca_coll_tuned.so  00007F3E93A273A5  Unknown               Unknown  Unknown
libmpi.so.1        00007F3EA157DBBD  Unknown               Unknown  Unknown
libmpi_mpifh.so.2  00007F3EA185A076  Unknown               Unknown  Unknown
oceanM             000000000041518D  Unknown               Unknown  Unknown
oceanM             000000000087DB76  Unknown               Unknown  Unknown
oceanM             00000000007AF136  Unknown               Unknown  Unknown
oceanM             00000000005279B4  Unknown               Unknown  Unknown
oceanM             0000000000405FF6  Unknown               Unknown  Unknown
oceanM             0000000000405354  Unknown               Unknown  Unknown
oceanM             0000000000404F2C  Unknown               Unknown  Unknown
libc.so.6          00007F3E9F6D3D1D  Unknown               Unknown  Unknown
oceanM             0000000000404E29  Unknown               Unknown  Unknown
--------------------------------------------------------------------------
mpirun noticed that process rank 28 with PID 62498 on node c60-7 exited on signal 11 (Segmentation fault).
--------------------------------------------------------------------------
8 total processes killed (some possibly by mpirun during cleanup)
1
1
2010-01-01-00000
fimex_hor_interp
verticalinterp
bry_from_clm
ini_from_clm
tpxo2romstide
make_atm_force start
fimex_felt2nc
dew2spec
make_atm_force end
Running ROMS in directory: /global/work/sfr009/Coupled_Pert//tmproms/run/arctic-20km



ROMS run finished
Traceback (most recent call last):
  File "Ensemble_arctic20km.py", line 99, in <module>
    os.rename(orig_folder+'ocean_rst.nc', dest_folder + 'ocean.' + date_string2  + '_' + member + '.nc')
OSError: [Errno 2] No such file or directory
